/*--------------------------------*- C++ -*----------------------------------*\
  =========                 |
  \\      /  F ield         | OpenFOAM: The Open Source CFD Toolbox
   \\    /   O peration     | Website:  https://openfoam.org
    \\  /    A nd           | Version:  7
     \\/     M anipulation  |
\*---------------------------------------------------------------------------*/
FoamFile
{
    version     2.0;
    format      ascii;
    class       dictionary;
    location    "constant";
    object      detachmentProperties;
}
// * * * * * * * * * * * * * * * * * * * * * * * * * * * * * * * * * * * * * //
// [kg m s K mol * *]

attachmentModel constantRate;

constantRateCoeffs
{
    value   6e-6;
}

// attachmentModel rittmannShearPower;

// rittmannShearPowerCoeffs
// {
//     collectorSize   2.0E-3;
//     fluidViscosity  0.0008891;
//     rittmannCoeff   1E-4;
//     rittmannExpon   0.52;
// }

// ************************************************************************* //
