/*--------------------------------*- C++ -*----------------------------------*\
  =========                 |
  \\      /  F ield         | OpenFOAM: The Open Source CFD Toolbox
   \\    /   O peration     | Website:  https://openfoam.org
    \\  /    A nd           | Version:  7
     \\/     M anipulation  |
\*---------------------------------------------------------------------------*/
FoamFile
{
    version     2.0;
    format      ascii;
    class       dictionary;
    location    "constant";
    object      transportProperties;
}
// * * * * * * * * * * * * * * * * * * * * * * * * * * * * * * * * * * * * * //
// [kg m s K mol * *]

/*  ♦ Biochemical partition coefficients */
/*
    fd represents the fraction of biomass that, after decaying, becomes EPS. 
    The fraction (1-fd) becomes XI. A common value for fd is 0.8
*/
fd       fd       [0 0  0 0 0 0 0]     0.80;

/*
    kEPS represents the fraction of DOC that, while metabolism of heterotrophs, 
    becomes EPS. A common value for kEPS is 0.18
*/
kEPS     kEPS     [0 0  0 0 0 0 0]     0.18;

/*
    gamma_N represents the fraction of nitrogen (by mass) in biomass. Assuming
    that biomass is C5H7O2N. its mol. weight is 113 g/mol, then, 
        
        gamma_N = 14/113 = 0.124
*/
gamma_N  gamma_N  [0 0  0 0 0 0 0]     0.124;

/*  ♦ Hydrolisis of particulates */
khyd_labil   khyd_labil   [0 0 -1 0 0 0 0]     1.968E-6;
khyd_recal   khyd_recal   [0 0 -1 0 0 0 0]     1.968E-7;

/*  ♦ Inhibitors and switches */
/*
    K_I controls the non-competitive inhibition that oxygen poses on 
    the denitrification rate. The rate of denitrification is calculated as: 
    
        rDN = qhat · M(DOC) · M(NO3) · K_I / (K_I + O2)
            
            ♣ K_I → ∞, O2 inhibition becomes negligible. 
            ♣ K_I → 0, denitrification is totally inhibited.
            M(C) are Monod-like terms.

    If denitrification is not solved, set to zero.         
*/
K_I         K_I         [1 -3 0 0 0 0 0]     0;   //

/*
    K_minN controls heterotrophic aerobes growth based on the presence
    of NH4 as their nitrogen source.
    
        rH = qhat · M(DOC) · M(O2) · NH4 / (K_minN + NH4)
        with M(C) a Monod-like term 

    If K_minN → 0, aerobic respiration is not restricted by NH4
    availability.                
*/
K_minN      K_minN      [1 -3 0 0 0 0 0]     0;

/*
    X_min acts as a threshold under which active biomass concentration
    is no longer viable for growth. It's coded as a switch such that 
    if X < X_min ⇒ X = 0 ⇒ Growth no longer posible.

*/
X_min       X_min       [1 -3 0 0 0 0 0]     1e-10; 

// ************************************************************************* //
