/*--------------------------------*- C++ -*----------------------------------*\
  =========                 |
  \\      /  F ield         | OpenFOAM: The Open Source CFD Toolbox
   \\    /   O peration     | Website:  https://openfoam.org
    \\  /    A nd           | Version:  7
     \\/     M anipulation  |
\*---------------------------------------------------------------------------*/
FoamFile
{
    version     2.0;
    format      ascii;
    class       dictionary;
    location    "constant";
    object      transportProperties;
}
// * * * * * * * * * * * * * * * * * * * * * * * * * * * * * * * * * * * * * //
// [kg m s K mol * *]

// Biochemical parameters
//// Denitrifiers
qhat     qhat     [0 0 -1 0 0 0 0]     1.389E-4; //
Kdonor   Kdonor   [1 -3 0 0 0 0 0]     0.00120;  //
Kaccep   Kaccep   [1 -3 0 0 0 0 0]     0.00066;  //
yield    yield    [0 0  0 0 0 0 0]     0.13;     //
bdie     bdie     [0 0 -1 0 0 0 0]     5.0E-7;   //

// ************************************************************************* //
