/*--------------------------------*- C++ -*----------------------------------*\
  =========                 |
  \\      /  F ield         | OpenFOAM: The Open Source CFD Toolbox
   \\    /   O peration     | Website:  https://openfoam.org
    \\  /    A nd           | Version:  7
     \\/     M anipulation  |
\*---------------------------------------------------------------------------*/
FoamFile
{
    version     2.0;
    format      ascii;
    class       volScalarField;
    object      theta;
}
// * * * * * * * * * * * * * * * * * * * * * * * * * * * * * * * * * * * * * //

dimensions      [0 0 0 0 0 0 0];

internalField   uniform 0.1;

boundaryField
{
    front
    {
        type       empty;
    }

    back
    {
        type        empty;
    }

    right
    {
        type        zeroGradient;
        // type		cyclicAMI;
    }

    left
    {
  	    // type		cyclicAMI;
        type        zeroGradient;
    }

    top
    {
        type        zeroGradient;
    }
    
    bottom
    {
        type        zeroGradient;
        // type        fixedValue;
        // value		uniform   0.43;
    }
}

// ************************************************************************* //
