/*--------------------------------*- C++ -*----------------------------------*\
  =========                 |
  \\      /  F ield         | OpenFOAM: The Open Source CFD Toolbox
   \\    /   O peration     | Website:  https://openfoam.org
    \\  /    A nd           | Version:  7
     \\/     M anipulation  |
\*---------------------------------------------------------------------------*/
FoamFile
{
    version     2.0;
    format      ascii;
    class       dictionary;
    location    "constant";
    object      transportProperties;
}
// * * * * * * * * * * * * * * * * * * * * * * * * * * * * * * * * * * * * * //
// [kg m s K mol * *]

// Densities
rho       rho       [1 -3 0 0 0 0 0]    1000.0;
rho_X     rho_X     [1 -3 0 0 0 0 0]    2.5;

//Other physical stuff
g         g         [0 1 -2 0 0 0 0]    9.81;
mu        mu        [1 -1 -1 0 0 0 0]   0.001;

//Static-var Filtration & clogging
// katt_BAP  katt_BAP  [0 0 -1 0 0 0 0]    0; //1.967E-6;
// katt_POCr katt_POCr [0 0 -1 0 0 0 0]    0; //1.967E-6;

kdet_EPS  kdet_EPS  [0 0 -1 0 0 0 0]    1.967E-6;
kdet_XI   kdet_XI   [0 0 -1 0 0 0 0]    1.967E-6;

//Dispersion
mDif       0; //2.0E-9;
LongDisp   0; //0.01;
TransDisp  0; //0.001;

molDiff    molDiff    [0 2 -1 0 0 0 0]
    ($mDif 0.0 0.0 
     0.0 $mDif 0.0 
     0.0 0.0 $mDif);

DispTensor DispTensor [0 1 0 0 0 0 0]
    ($LongDisp $TransDisp $TransDisp 
     $TransDisp $LongDisp $TransDisp 
     $TransDisp $TransDisp $LongDisp);


// ************************************************************************* //
