/*--------------------------------*- C++ -*----------------------------------*\
| =========                 |                                                 |
| \\      /  F ield         | OpenFOAM: The Open Source CFD Toolbox           |
|  \\    /   O peration     | Version:  v2206                                 |
|   \\  /    A nd           | Website:  www.openfoam.com                      |
|    \\/     M anipulation  |                                                 |
\*---------------------------------------------------------------------------*/
FoamFile
{
    version     2.0;
    format      ascii;
    class       dictionary;
    object      fvOptions;
}
// * * * * * * * * * * * * * * * * * * * * * * * * * * * * * * * * * * * * * //

fixedValue
{
    type            scalarFixedValueConstraint;
    active          yes;

    selectionMode   cellZone;    //cellZone or all
    cellZone        injectionHole;
    fieldValues
    {
       // h           0.1;
        DOC         0.090;
        NO3         0.090;
    }
}