/*--------------------------------*- C++ -*----------------------------------*\
  =========                 |
  \\      /  F ield         | OpenFOAM: The Open Source CFD Toolbox
   \\    /   O peration     | Website:  https://openfoam.org
    \\  /    A nd           | Version:  7
     \\/     M anipulation  |
\*---------------------------------------------------------------------------*/
FoamFile
{
    version     2.0;
    format      ascii;
    class       volScalarField;
    object      h;
}
// * * * * * * * * * * * * * * * * * * * * * * * * * * * * * * * * * * * * * //

dimensions      [0 1 0 0 0 0 0];

internalField   uniform 0;

boundaryField
{
    front
    {
        type            empty;
    }

    back
    {
        type            empty;
    }

    right
    {
  	type		empty;
    }

    left
    {
  	type		empty;
    }

    top
    {
        type        fixedValue;
	    value		uniform   10; // 1.004672127E+01;
    }

    bottom
    {
        //type            zeroGradient;
        type        fixedValue;
        value       uniform   0; // 1.004672127E+01;

    }
}

// ************************************************************************* //
