Pcp_File_Version=4
*** BLOCK A: BASIC INFORMATION *****************************************
Heading
TwoLayers
LUnit  TUnit  MUnit  (indicated units are obligatory for all input data)
m
sec
mmol
lWat   lChem lTemp  lSink lRoot lShort lWDep lScreen lVariabBC lEquil lInverse
 t     f     f      f     f     f      f     t       f         t         f
lSnow  lHP1   lMeteo  lVapor lActiveU lFluxes lIrrig  lDummy  lDummy  lDummy
 f       f       f       f       f       t       f       f       f       f
NMat    NLay  CosAlpha
  2       1       1
*** BLOCK B: WATER FLOW INFORMATION ************************************
MaxIt   TolTh   TolH       (maximum number of iterations and tolerances)
  10    0.001   0.01
TopInf WLayer KodTop InitCond
 f     f       1       f
BotInf qGWLF FreeD SeepF KodBot DrainF  hSeep
 f     f     t     f     -1      f      0
    hTab1   hTabN
    1e-008     100
    Model   Hysteresis
      0          0
   thr     ths    Alfa      n         Ks       l
  0.095    0.41     1.9    1.31 7.22222e-007     0.5 
  0.065    0.41     7.5    1.89 1.22801e-005     0.5 
*** BLOCK C: TIME INFORMATION ******************************************
        dt       dtMin       dtMax     DMul    DMul2  ItMin ItMax  MPL
          5        0.01        8640     1.3     0.7     3     7     6
      tInit        tMax
          0      259200
  lPrintD  nPrintSteps tPrintInterval lEnter
     t           1         86400       f
TPrint(1),TPrint(2),...,TPrint(MPL)
      43200       86400      129600      172800      216000      259200 
*** END OF INPUT FILE 'SELECTOR.IN' ************************************
