/*--------------------------------*- C++ -*----------------------------------*\
  =========                 |
  \\      /  F ield         | OpenFOAM: The Open Source CFD Toolbox
   \\    /   O peration     | Website:  https://openfoam.org
    \\  /    A nd           | Version:  7
     \\/     M anipulation  |
\*---------------------------------------------------------------------------*/
FoamFile
{
    version     2.0;
    format      ascii;
    class       dictionary;
    location    "system";
    object      controlDict;
}
// * * * * * * * * * * * * * * * * * * * * * * * * * * * * * * * * * * * * * //

end_minutes 600.0;
end_secs #calc "round($end_minutes*60.0)";
// end_secs 10;

write_minutes 5.0;
write_secs #calc "round($write_minutes*60.0)";

application     unsatNutrientCycle;

startFrom       latestTime;
startTime       0;
stopAt          endTime;

endTime	        $end_secs;
writeControl    runTime;
writeInterval   $write_secs;

deltaT          30;
purgeWrite      0;

writeFormat     ascii;

writePrecision  6;

writeCompression off;

timeFormat      fixed;

timePrecision   3;

runTimeModifiable true;

adjustTimeStep  yes;

maxCo           1.0;

debug           1;

// To plot breakthrough curve

// functions
//     {
//       #includeFunc    probes
// 	    //#includeFunc    probeU
// 	//#includeFunc  boundaryProbes
//         //#includeFunc  boundaryProbeTop
//     };


// ************************************************************************* //
