/*--------------------------------*- C++ -*----------------------------------*\
  =========                 |
  \\      /  F ield         | OpenFOAM: The Open Source CFD Toolbox
   \\    /   O peration     | Website:  https://openfoam.org
    \\  /    A nd           | Version:  7
     \\/     M anipulation  |
\*---------------------------------------------------------------------------*/
FoamFile
{
    version     2.0;
    format      ascii;
    class       dictionary;
    location    "system";
    object      fvSolution;
}
// * * * * * * * * * * * * * * * * * * * * * * * * * * * * * * * * * * * * * //

solvers
{
    h
    {
        // solver      smoothSolver;
        // smoother    DIC;
        // tolerance   1e-9;
        // relTol      0;
        solver          PCG; //PBiCG; 
        preconditioner  FDIC; //DILU;
        tolerance       1e-14;
        relTol          0;
    }

    tracer
    {
        solver          PBiCGStab;
        preconditioner  DILU;
        tolerance       1e-09;
        relTol          0;
    }

}

SIMPLE
{
    nNonOrthogonalCorrectors 0;
}

timeStepping
{
    convergeThreshold   0.0001; // 
    maxItersToConverge  30;  // Triggers dT down

    UpDeltaT_nIters     3;   // Triggers dT up
    UpDeltaT_Factor     1.15;
    maxDeltaT           10;

    DownDeltaT_Factor   0.5;
    minDeltaT           1e-9;
    hguess_coeff        0.55;
}



// ************************************************************************* //
