/*--------------------------------*- C++ -*----------------------------------*\
  =========                 |
  \\      /  F ield         | OpenFOAM: The Open Source CFD Toolbox
   \\    /   O peration     | Website:  https://openfoam.org
    \\  /    A nd           | Version:  7
     \\/     M anipulation  |
\*---------------------------------------------------------------------------*/
FoamFile
{
    version     2.0;
    format      ascii;
    class       dictionary;
    location    "system";
    object      controlDict;
}
// * * * * * * * * * * * * * * * * * * * * * * * * * * * * * * * * * * * * * //

// end_days 0.11;
end_days 30.11;
end_secs #calc "round($end_days*24*60.0*60.0)";

// write_days 0.01;
write_days 1;
write_secs #calc "round($write_days*24*60.0*60.0)";

application     unsatFoam;

startFrom       latestTime;
startTime       0;
stopAt          endTime;

endTime	        $end_secs;
writeControl    runTime;
writeInterval   $write_secs;

// writeControl    timeStep;
// writeInterval   1;

deltaT          1e-3;
purgeWrite      0;

writeFormat     ascii;

writePrecision  6;

writeCompression off;

timeFormat      fixed;

timePrecision   3;

runTimeModifiable true;

adjustTimeStep  yes;

maxCo           1.0;

debug           1;

// To plot breakthrough curve

// functions
//     {
//       #includeFunc    probes
// 	    //#includeFunc    probeU
// 	//#includeFunc  boundaryProbes
//         //#includeFunc  boundaryProbeTop
//     };


// ************************************************************************* //
