Pcp_File_Version=4
*** BLOCK A: BASIC INFORMATION *****************************************
Heading
HYDRUS-1D
LUnit  TUnit  MUnit  (indicated units are obligatory for all input data)
cm
hours
mmol
lWat   lChem lTemp  lSink lRoot lShort lWDep lScreen lVariabBC lEquil lInverse
 t     f     f      f     f     f      f     t       f         t         f
lSnow  lHP1   lMeteo  lVapor lActiveU lFluxes lIrrig  lDummy  lDummy  lDummy
 f       f       f       f       f       t       f       f       f       f
NMat    NLay  CosAlpha
  1       1       1
*** BLOCK B: WATER FLOW INFORMATION ************************************
MaxIt   TolTh   TolH       (maximum number of iterations and tolerances)
  10    0.001      1
TopInf WLayer KodTop InitCond
 f     f       1       f
BotInf qGWLF FreeD SeepF KodBot DrainF  hSeep
 f     f     t     f     -1      f      0
    hTab1   hTabN
    1e-006   10000
    Model   Hysteresis
      0          0
   thr     ths    Alfa      n         Ks       l
  0.078    0.43   0.036    1.56     1.0296     0.5 
*** BLOCK C: TIME INFORMATION ******************************************
        dt       dtMin       dtMax     DMul    DMul2  ItMin ItMax  MPL
  0.0833333 0.000166667           1     1.3     0.7     3     7    25
      tInit        tMax
          0          25
  lPrintD  nPrintSteps tPrintInterval lEnter
     t           1             1       t
TPrint(1),TPrint(2),...,TPrint(MPL)
          1           2           3           4           5           6 
          7           8           9          10          11          12 
         13          14          15          16          17          18 
         19          20          21          22          23          24 
         25 
*** END OF INPUT FILE 'SELECTOR.IN' ************************************
