/*--------------------------------*- C++ -*----------------------------------*\
  =========                 |
  \\      /  F ield         | OpenFOAM: The Open Source CFD Toolbox
   \\    /   O peration     | Website:  https://openfoam.org
    \\  /    A nd           | Version:  7
     \\/     M anipulation  |
\*---------------------------------------------------------------------------*/
FoamFile
{
    version     2.0;
    format      ascii;
    class       dictionary;
    location    "system";
    object      setFieldsDict;
}
// * * * * * * * * * * * * * * * * * * * * * * * * * * * * * * * * * * * * * //

defaultFieldValues
(
    volScalarFieldValue alpha     1.90
    volScalarFieldValue K_s       7.22E-7
    volScalarFieldValue n         1.31
    volScalarFieldValue theta_r   0.095
    volScalarFieldValue theta_s   0.410
);

regions
(
    boxToCell
    {
        box (0.0 0.0 0.40) (0.2 0.2 0.60);
        fieldValues
        (
            volScalarFieldValue alpha     7.50
            volScalarFieldValue K_s       1.228E-5
            volScalarFieldValue n         1.89
            volScalarFieldValue theta_r   0.065
            volScalarFieldValue theta_s   0.410
        );
    }
);


// ************************************************************************* //
