/*--------------------------------*- C++ -*----------------------------------*\
  =========                 |
  \\      /  F ield         | OpenFOAM: The Open Source CFD Toolbox
   \\    /   O peration     | Website:  https://openfoam.org
    \\  /    A nd           | Version:  7
     \\/     M anipulation  |
\*---------------------------------------------------------------------------*/
FoamFile
{
    version     2.0;
    format      ascii;
    class       dictionary;
    location    "constant";
    object      kineticsDenitrifiers;
}
// * * * * * * * * * * * * * * * * * * * * * * * * * * * * * * * * * * * * * //
// [kg m s K mol * *]

// Biochemical parameters
//// Denitrifiers
yield    yield    [0 0  0 0 0 0 0]     0.20;      //
qhat     qhat     [0 0 -1 0 0 0 0]     1.3889E-4; //
bdie     bdie     [0 0 -1 0 0 0 0]     5.7870E-7; //
Kdonor   Kdonor   [1 -3 0 0 0 0 0]     1.0E-3;    //
Kaccep   Kaccep   [1 -3 0 0 0 0 0]     0.5E-3;    //


// ************************************************************************* //
