/*--------------------------------*- C++ -*----------------------------------*\
  =========                 |
  \\      /  F ield         | OpenFOAM: The Open Source CFD Toolbox
   \\    /   O peration     | Website:  https://openfoam.org
    \\  /    A nd           | Version:  7
     \\/     M anipulation  |
\*---------------------------------------------------------------------------*/
FoamFile
{
    version     2.0;
    format      ascii;
    class       volScalarField;
    location    "0.000";
    object      K_s;
}
// * * * * * * * * * * * * * * * * * * * * * * * * * * * * * * * * * * * * * //

dimensions      [0 1 -1 0 0 0 0];

internalField   nonuniform List<scalar> 
10100
(
0.0002067
0.0002067
0.0002067
0.0002067
0.0002067
0.0002067
0.0002067
0.0002067
0.0002067
0.0002067
0.0002067
0.0002067
0.0002067
0.0002067
0.0002067
0.0002067
0.0002067
0.0002067
0.0002067
0.0002067
0.0002067
0.0002067
0.0002067
0.0002067
0.0002067
0.0002067
0.0002067
0.0002067
0.0002067
0.0002067
0.0002067
0.0002067
0.0002067
0.0002067
0.0002067
0.0002067
0.0002067
0.0002067
0.0002067
0.0002067
0.0002067
0.0002067
0.0002067
0.0002067
0.0002067
0.0002067
0.0002067
0.0002067
0.0002067
0.0002067
0.0002067
0.0002067
0.0002067
0.0002067
0.0002067
0.0002067
0.0002067
0.0002067
0.0002067
0.0002067
0.0002067
0.0002067
0.0002067
0.0002067
0.0002067
0.0002067
0.0002067
0.0002067
0.0002067
0.0002067
0.0002067
0.0002067
0.0002067
0.0002067
0.0002067
0.0002067
0.0002067
0.0002067
0.0002067
0.0002067
0.0002067
0.0002067
0.0002067
0.0002067
0.0002067
0.0002067
0.0002067
0.0002067
0.0002067
0.0002067
0.0002067
0.0002067
0.0002067
0.0002067
0.0002067
0.0002067
0.0002067
0.0002067
0.0002067
0.0002067
0.0002067
0.0002067
0.0002067
0.0002067
0.0002067
0.0002067
0.0002067
0.0002067
0.0002067
0.0002067
0.0002067
0.0002067
0.0002067
0.0002067
0.0002067
0.0002067
0.0002067
0.0002067
0.0002067
0.0002067
0.0002067
0.0002067
0.0002067
0.0002067
0.0002067
0.0002067
0.0002067
0.0002067
0.0002067
0.0002067
0.0002067
0.0002067
0.0002067
0.0002067
0.0002067
0.0002067
0.0002067
0.0002067
0.0002067
0.0002067
0.0002067
0.0002067
0.0002067
0.0002067
0.0002067
0.0002067
0.0002067
0.0002067
0.0002067
0.0002067
0.0002067
0.0002067
0.0002067
0.0002067
0.0002067
0.0002067
0.0002067
0.0002067
0.0002067
0.0002067
0.0002067
0.0002067
0.0002067
0.0002067
0.0002067
0.0002067
0.0002067
0.0002067
0.0002067
0.0002067
0.0002067
0.0002067
0.0002067
0.0002067
0.0002067
0.0002067
0.0002067
0.0002067
0.0002067
0.0002067
0.0002067
0.0002067
0.0002067
0.0002067
0.0002067
0.0002067
0.0002067
0.0002067
0.0002067
0.0002067
0.0002067
0.0002067
0.0002067
0.0002067
0.0002067
0.0002067
0.0002067
0.0002067
0.0002067
0.0002067
0.0002067
0.0002067
0.0002067
0.0002067
0.0002067
0.0002067
0.0002067
0.0002067
0.0002067
0.0002067
0.0002067
0.0002067
0.0002067
0.0002067
0.0002067
0.0002067
0.0002067
0.0002067
0.0002067
0.0002067
0.0002067
0.0002067
0.0002067
0.0002067
0.0002067
0.0002067
0.0002067
0.0002067
0.0002067
0.0002067
0.0002067
0.0002067
0.0002067
0.0002067
0.0002067
0.0002067
0.0002067
0.0002067
0.0002067
0.0002067
0.0002067
0.0002067
0.0002067
0.0002067
0.0002067
0.0002067
0.0002067
0.0002067
0.0002067
0.0002067
0.0002067
0.0002067
0.0002067
0.0002067
0.0002067
0.0002067
0.0002067
0.0002067
0.0002067
0.0002067
0.0002067
0.0002067
0.0002067
0.0002067
0.0002067
0.0002067
0.0002067
0.0002067
0.0002067
0.0002067
0.0002067
0.0002067
0.0002067
0.0002067
0.0002067
0.0002067
0.0002067
0.0002067
0.0002067
0.0002067
0.0002067
0.0002067
0.0002067
0.0002067
0.0002067
0.0002067
0.0002067
0.0002067
0.0002067
0.0002067
0.0002067
0.0002067
0.0002067
0.0002067
0.0002067
0.0002067
0.0002067
0.0002067
0.0002067
0.0002067
0.0002067
0.0002067
0.0002067
0.0002067
0.0002067
0.0002067
0.0002067
0.0002067
0.0002067
0.0002067
0.0002067
0.0002067
0.0002067
0.0002067
0.0002067
0.0002067
0.0002067
0.0002067
0.0002067
0.0002067
0.0002067
0.0002067
0.0002067
0.0002067
0.0002067
0.0002067
0.0002067
0.0002067
0.0002067
0.0002067
0.0002067
0.0002067
0.0002067
0.0002067
0.0002067
0.0002067
0.0002067
0.0002067
0.0002067
0.0002067
0.0002067
0.0002067
0.0002067
0.0002067
0.0002067
0.0002067
0.0002067
0.0002067
0.0002067
0.0002067
0.0002067
0.0002067
0.0002067
0.0002067
0.0002067
0.0002067
0.0002067
0.0002067
0.0002067
0.0002067
0.0002067
0.0002067
0.0002067
0.0002067
0.0002067
0.0002067
0.0002067
0.0002067
0.0002067
0.0002067
0.0002067
0.0002067
0.0002067
0.0002067
0.0002067
0.0002067
0.0002067
0.0002067
0.0002067
0.0002067
0.0002067
0.0002067
0.0002067
0.0002067
0.0002067
0.0002067
0.0002067
0.0002067
0.0002067
0.0002067
0.0002067
0.0002067
0.0002067
0.0002067
0.0002067
0.0002067
0.0002067
0.0002067
0.0002067
0.0002067
0.0002067
0.0002067
0.0002067
0.0002067
0.0002067
0.0002067
0.0002067
0.0002067
0.0002067
0.0002067
0.0002067
0.0002067
0.0002067
0.0002067
0.0002067
0.0002067
0.0002067
0.0002067
0.0002067
0.0002067
0.0002067
0.0002067
0.0002067
0.0002067
0.0002067
0.0002067
0.0002067
0.0002067
0.0002067
0.0002067
0.0002067
0.0002067
0.0002067
0.0002067
0.0002067
0.0002067
0.0002067
0.0002067
0.0002067
0.0002067
0.0002067
0.0002067
0.0002067
0.0002067
0.0002067
0.0002067
0.0002067
0.0002067
0.0002067
0.0002067
0.0002067
0.0002067
0.0002067
0.0002067
0.0002067
0.0002067
0.0002067
0.0002067
0.0002067
0.0002067
0.0002067
0.0002067
0.0002067
0.0002067
0.0002067
0.0002067
0.0002067
0.0002067
0.0002067
0.0002067
0.0002067
0.0002067
0.0002067
0.0002067
0.0002067
0.0002067
0.0002067
0.0002067
0.0002067
0.0002067
0.0002067
0.0002067
0.0002067
0.0002067
0.0002067
0.0002067
0.0002067
0.0002067
0.0002067
0.0002067
0.0002067
0.0002067
0.0002067
0.0002067
0.0002067
0.0002067
0.0002067
0.0002067
0.0002067
0.0002067
0.0002067
0.0002067
0.0002067
0.0002067
0.0002067
0.0002067
0.0002067
0.0002067
0.0002067
0.0002067
0.0002067
0.0002067
0.0002067
0.0002067
0.0002067
0.0002067
0.0002067
0.0002067
0.0002067
0.0002067
0.0002067
0.0002067
0.0002067
0.0002067
0.0002067
0.0002067
0.0002067
0.0002067
0.0002067
0.0002067
0.0002067
0.0002067
0.0002067
0.0002067
0.0002067
0.0002067
0.0002067
0.0002067
0.0002067
0.0002067
0.0002067
0.0002067
0.0002067
0.0002067
0.0002067
0.0002067
0.0002067
0.0002067
0.0002067
0.0002067
0.0002067
0.0002067
0.0002067
0.0002067
0.0002067
0.0002067
0.0002067
0.0002067
0.0002067
0.0002067
0.0002067
0.0002067
0.0002067
0.0002067
0.0002067
0.0002067
0.0002067
0.0002067
0.0002067
0.0002067
0.0002067
0.0002067
0.0002067
0.0002067
0.0002067
0.0002067
0.0002067
0.0002067
0.0002067
0.0002067
0.0002067
0.0002067
0.0002067
0.0002067
0.0002067
0.0002067
0.0002067
0.0002067
0.0002067
0.0002067
0.0002067
0.0002067
0.0002067
0.0002067
0.0002067
0.0002067
0.0002067
0.0002067
0.0002067
0.0002067
0.0002067
0.0002067
0.0002067
0.0002067
0.0002067
0.0002067
0.0002067
0.0002067
0.0002067
0.0002067
0.0002067
0.0002067
0.0002067
0.0002067
0.0002067
0.0002067
0.0002067
0.0002067
0.0002067
0.0002067
0.0002067
0.0002067
0.0002067
0.0002067
0.0002067
0.0002067
0.0002067
0.0002067
0.0002067
0.0002067
0.0002067
0.0002067
0.0002067
0.0002067
0.0002067
0.0002067
0.0002067
0.0002067
0.0002067
0.0002067
0.0002067
0.0002067
0.0002067
0.0002067
0.0002067
0.0002067
0.0002067
0.0002067
0.0002067
0.0002067
0.0002067
0.0002067
0.0002067
0.0002067
0.0002067
0.0002067
0.0002067
0.0002067
0.0002067
0.0002067
0.0002067
0.0002067
0.0002067
0.0002067
0.0002067
0.0002067
0.0002067
0.0002067
0.0002067
0.0002067
0.0002067
0.0002067
0.0002067
0.0002067
0.0002067
0.0002067
0.0002067
0.0002067
0.0002067
0.0002067
0.0002067
0.0002067
0.0002067
0.0002067
0.0002067
0.0002067
0.0002067
0.0002067
0.0002067
0.0002067
0.0002067
0.0002067
0.0002067
0.0002067
0.0002067
0.0002067
0.0002067
0.0002067
0.0002067
0.0002067
0.0002067
0.0002067
0.0002067
0.0002067
0.0002067
0.0002067
0.0002067
0.0002067
0.0002067
0.0002067
0.0002067
0.0002067
0.0002067
0.0002067
0.0002067
0.0002067
0.0002067
0.0002067
0.0002067
0.0002067
0.0002067
0.0002067
0.0002067
0.0002067
0.0002067
0.0002067
0.0002067
0.0002067
0.0002067
0.0002067
0.0002067
0.0002067
0.0002067
0.0002067
0.0002067
0.0002067
0.0002067
0.0002067
0.0002067
0.0002067
0.0002067
0.0002067
0.0002067
0.0002067
0.0002067
0.0002067
0.0002067
0.0002067
0.0002067
0.0002067
0.0002067
0.0002067
0.0002067
0.0002067
0.0002067
0.0002067
0.0002067
0.0002067
0.0002067
0.0002067
0.0002067
0.0002067
0.0002067
0.0002067
0.0002067
0.0002067
0.0002067
0.0002067
0.0002067
0.0002067
0.0002067
0.0002067
0.0002067
0.0002067
0.0002067
0.0002067
0.0002067
0.0002067
0.0002067
0.0002067
0.0002067
0.0002067
0.0002067
0.0002067
0.0002067
0.0002067
0.0002067
0.0002067
0.0002067
0.0002067
0.0002067
0.0002067
0.0002067
0.0002067
0.0002067
0.0002067
0.0002067
0.0002067
0.0002067
0.0002067
0.0002067
0.0002067
0.0002067
0.0002067
0.0002067
0.0002067
0.0002067
0.0002067
0.0002067
0.0002067
0.0002067
0.0002067
0.0002067
0.0002067
0.0002067
0.0002067
0.0002067
0.0002067
0.0002067
0.0002067
0.0002067
0.0002067
0.0002067
0.0002067
0.0002067
0.0002067
0.0002067
0.0002067
0.0002067
0.0002067
0.0002067
0.0002067
0.0002067
0.0002067
0.0002067
0.0002067
0.0002067
0.0002067
0.0002067
0.0002067
0.0002067
0.0002067
0.0002067
0.0002067
0.0002067
0.0002067
0.0002067
0.0002067
0.0002067
0.0002067
0.0002067
0.0002067
0.0002067
0.0002067
0.0002067
0.0002067
0.0002067
0.0002067
0.0002067
0.0002067
0.0002067
0.0002067
0.0002067
0.0002067
0.0002067
0.0002067
0.0002067
0.0002067
0.0002067
0.0002067
0.0002067
0.0002067
0.0002067
0.0002067
0.0002067
0.0002067
0.0002067
0.0002067
0.0002067
0.0002067
0.0002067
0.0002067
0.0002067
0.0002067
0.0002067
0.0002067
0.0002067
0.0002067
0.0002067
0.0002067
0.0002067
0.0002067
0.0002067
0.0002067
0.0002067
0.0002067
0.0002067
0.0002067
0.0002067
0.0002067
0.0002067
0.0002067
0.0002067
0.0002067
0.0002067
0.0002067
0.0002067
0.0002067
0.0002067
0.0002067
0.0002067
0.0002067
0.0002067
0.0002067
0.0002067
0.0002067
0.0002067
0.0002067
0.0002067
0.0002067
0.0002067
0.0002067
0.0002067
0.0002067
0.0002067
0.0002067
0.0002067
0.0002067
0.0002067
0.0002067
0.0002067
0.0002067
0.0002067
0.0002067
0.0002067
0.0002067
0.0002067
0.0002067
0.0002067
0.0002067
0.0002067
0.0002067
0.0002067
0.0002067
0.0002067
0.0002067
0.0002067
0.0002067
0.0002067
0.0002067
0.0002067
0.0002067
0.0002067
0.0002067
0.0002067
0.0002067
0.0002067
0.0002067
0.0002067
0.0002067
0.0002067
0.0002067
0.0002067
0.0002067
0.0002067
0.0002067
0.0002067
0.0002067
0.0002067
0.0002067
0.0002067
0.0002067
0.0002067
0.0002067
0.0002067
0.0002067
0.0002067
0.0002067
0.0002067
0.0002067
0.0002067
0.0002067
0.0002067
0.0002067
0.0002067
0.0002067
0.0002067
0.0002067
0.0002067
0.0002067
0.0002067
0.0002067
0.0002067
0.0002067
0.0002067
0.0002067
0.0002067
0.0002067
0.0002067
0.0002067
0.0002067
0.0002067
0.0002067
0.0002067
0.0002067
0.0002067
0.0002067
0.0002067
0.0002067
0.0002067
0.0002067
0.0002067
0.0002067
0.0002067
0.0002067
0.0002067
0.0002067
0.0002067
0.0002067
0.0002067
0.0002067
0.0002067
0.0002067
0.0002067
0.0002067
0.0002067
0.0002067
0.0002067
0.0002067
0.0002067
0.0002067
0.0002067
0.0002067
0.0002067
0.0002067
0.0002067
0.0002067
0.0002067
0.0002067
0.0002067
0.0002067
0.0002067
0.0002067
0.0002067
0.0002067
0.0002067
0.0002067
0.0002067
0.0002067
0.0002067
0.0002067
0.0002067
0.0002067
0.0002067
0.0002067
0.0002067
0.0002067
0.0002067
0.0002067
0.0002067
0.0002067
0.0002067
0.0002067
0.0002067
0.0002067
0.0002067
0.0002067
0.0002067
0.0002067
0.0002067
0.0002067
0.0002067
0.0002067
0.0002067
0.0002067
0.0002067
0.0002067
0.0002067
0.0002067
0.0002067
0.0002067
0.0002067
0.0002067
0.0002067
0.0002067
0.0002067
0.0002067
0.0002067
0.0002067
0.0002067
0.0002067
0.0002067
0.0002067
0.0002067
0.0002067
0.0002067
0.0002067
0.0002067
0.0002067
0.0002067
0.0002067
0.0002067
0.0002067
0.0002067
0.0002067
0.0002067
0.0002067
0.0002067
0.0002067
0.0002067
0.0002067
0.0002067
0.0002067
0.0002067
0.0002067
0.0002067
0.0002067
0.0002067
0.0002067
0.0002067
0.0002067
0.0002067
0.0002067
0.0002067
0.0002067
0.0002067
0.0002067
0.0002067
0.0002067
0.0002067
0.0002067
0.0002067
0.0002067
0.0002067
0.0002067
0.0002067
0.0002067
0.0002067
0.0002067
0.0002067
0.0002067
0.0002067
0.0002067
0.0002067
0.0002067
0.0002067
0.0002067
0.0002067
0.0002067
0.0002067
0.0002067
0.0002067
0.0002067
0.0002067
0.0002067
0.0002067
0.0002067
0.0002067
0.0002067
0.0002067
0.0002067
0.0002067
0.0002067
0.0002067
0.0002067
0.0002067
0.0002067
0.0002067
0.0002067
0.0002067
0.0002067
0.0002067
0.0002067
0.0002067
0.0002067
0.0002067
0.0002067
0.0002067
0.0002067
0.0002067
0.0002067
0.0002067
0.0002067
0.0002067
0.0002067
0.0002067
0.0002067
0.0002067
0.0002067
0.0002067
0.0002067
0.0002067
0.0002067
0.0002067
0.0002067
0.0002067
0.0002067
0.0002067
0.0002067
0.0002067
0.0002067
0.0002067
0.0002067
0.0002067
0.0002067
0.0002067
0.0002067
0.0002067
0.0002067
0.0002067
0.0002067
0.0002067
0.0002067
0.0002067
0.0002067
0.0002067
0.0002067
0.0002067
0.0002067
0.0002067
0.0002067
0.0002067
0.0002067
0.0002067
0.0002067
0.0002067
0.0002067
0.0002067
0.0002067
0.0002067
0.0002067
0.0002067
0.0002067
0.0002067
0.0002067
0.0002067
0.0002067
0.0002067
0.0002067
0.0002067
0.0002067
0.0002067
0.0002067
0.0002067
0.0002067
0.0002067
0.0002067
0.0002067
0.0002067
0.0002067
0.0002067
0.0002067
0.0002067
0.0002067
0.0002067
0.0002067
0.0002067
0.0002067
0.0002067
0.0002067
0.0002067
0.0002067
0.0002067
0.0002067
0.0002067
0.0002067
0.0002067
0.0002067
0.0002067
0.0002067
0.0002067
0.0002067
0.0002067
0.0002067
0.0002067
0.0002067
0.0002067
0.0002067
0.0002067
0.0002067
0.0002067
0.0002067
0.0002067
0.0002067
0.0002067
0.0002067
0.0002067
0.0002067
0.0002067
0.0002067
0.0002067
0.0002067
0.0002067
0.0002067
0.0002067
0.0002067
0.0002067
0.0002067
0.0002067
0.0002067
0.0002067
0.0002067
0.0002067
0.0002067
0.0002067
0.0002067
0.0002067
0.0002067
0.0002067
0.0002067
0.0002067
0.0002067
0.0002067
0.0002067
0.0002067
0.0002067
0.0002067
0.0002067
0.0002067
0.0002067
0.0002067
0.0002067
0.0002067
0.0002067
0.0002067
0.0002067
0.0002067
0.0002067
0.0002067
0.0002067
0.0002067
0.0002067
0.0002067
0.0002067
0.0002067
0.0002067
0.0002067
0.0002067
0.0002067
0.0002067
0.0002067
0.0002067
0.0002067
0.0002067
0.0002067
0.0002067
0.0002067
0.0002067
0.0002067
0.0002067
0.0002067
0.0002067
0.0002067
0.0002067
0.0002067
0.0002067
0.0002067
0.0002067
0.0002067
0.0002067
0.0002067
0.0002067
0.0002067
0.0002067
0.0002067
0.0002067
0.0002067
0.0002067
0.0002067
0.0002067
0.0002067
0.0002067
0.0002067
0.0002067
0.0002067
0.0002067
0.0002067
0.0002067
0.0002067
0.0002067
0.0002067
0.0002067
0.0002067
0.0002067
0.0002067
0.0002067
0.0002067
0.0002067
0.0002067
0.0002067
0.0002067
0.0002067
0.0002067
0.0002067
0.0002067
0.0002067
0.0002067
0.0002067
0.0002067
0.0002067
0.0002067
0.0002067
0.0002067
0.0002067
0.0002067
0.0002067
0.0002067
0.0002067
0.0002067
0.0002067
0.0002067
0.0002067
0.0002067
0.0002067
0.0002067
0.0002067
0.0002067
0.0002067
0.0002067
0.0002067
0.0002067
0.0002067
0.0002067
0.0002067
0.0002067
0.0002067
0.0002067
0.0002067
0.0002067
0.0002067
0.0002067
0.0002067
0.0002067
0.0002067
0.0002067
0.0002067
0.0002067
0.0002067
0.0002067
0.0002067
0.0002067
0.0002067
0.0002067
0.0002067
0.0002067
0.0002067
0.0002067
0.0002067
0.0002067
0.0002067
0.0002067
0.0002067
0.0002067
0.0002067
0.0002067
0.0002067
0.0002067
0.0002067
0.0002067
0.0002067
0.0002067
0.0002067
0.0002067
0.0002067
0.0002067
0.0002067
0.0002067
0.0002067
0.0002067
0.0002067
0.0002067
0.0002067
0.0002067
0.0002067
0.0002067
0.0002067
0.0002067
0.0002067
0.0002067
0.0002067
0.0002067
0.0002067
0.0002067
0.0002067
0.0002067
0.0002067
0.0002067
0.0002067
0.0002067
0.0002067
0.0002067
0.0002067
0.0002067
0.0002067
0.0002067
0.0002067
0.0002067
0.0002067
0.0002067
0.0002067
0.0002067
0.0002067
0.0002067
0.0002067
0.0002067
0.0002067
0.0002067
0.0002067
0.0002067
0.0002067
0.0002067
0.0002067
0.0002067
0.0002067
0.0002067
0.0002067
0.0002067
0.0002067
0.0002067
0.0002067
0.0002067
0.0002067
0.0002067
0.0002067
0.0002067
0.0002067
0.0002067
0.0002067
0.0002067
0.0002067
0.0002067
0.0002067
0.0002067
0.0002067
0.0002067
0.0002067
0.0002067
0.0002067
0.0002067
0.0002067
0.0002067
0.0002067
0.0002067
0.0002067
0.0002067
0.0002067
0.0002067
0.0002067
0.0002067
0.0002067
0.0002067
0.0002067
0.0002067
0.0002067
0.0002067
0.0002067
0.0002067
0.0002067
0.0002067
0.0002067
0.0002067
0.0002067
0.0002067
0.0002067
0.0002067
0.0002067
0.0002067
0.0002067
0.0002067
0.0002067
0.0002067
0.0002067
0.0002067
0.0002067
0.0002067
0.0002067
0.0002067
0.0002067
0.0002067
0.0002067
0.0002067
0.0002067
0.0002067
0.0002067
0.0002067
0.0002067
0.0002067
0.0002067
0.0002067
0.0002067
0.0002067
0.0002067
0.0002067
0.0002067
0.0002067
0.0002067
0.0002067
0.0002067
0.0002067
0.0002067
0.0002067
0.0002067
0.0002067
0.0002067
0.0002067
0.0002067
0.0002067
0.0002067
0.0002067
0.0002067
0.0002067
0.0002067
0.0002067
0.0002067
0.0002067
0.0002067
0.0002067
0.0002067
0.0002067
0.0002067
0.0002067
0.0002067
0.0002067
0.0002067
0.0002067
0.0002067
0.0002067
0.0002067
0.0002067
0.0002067
0.0002067
0.0002067
0.0002067
0.0002067
0.0002067
0.0002067
0.0002067
0.0002067
0.0002067
0.0002067
0.0002067
0.0002067
0.0002067
0.0002067
0.0002067
0.0002067
0.0002067
0.0002067
0.0002067
0.0002067
0.0002067
0.0002067
0.0002067
0.0002067
0.0002067
0.0002067
0.0002067
0.0002067
0.0002067
0.0002067
0.0002067
0.0002067
0.0002067
0.0002067
0.0002067
0.0002067
0.0002067
0.0002067
0.0002067
0.0002067
0.0002067
0.0002067
0.0002067
0.0002067
0.0002067
0.0002067
0.0002067
0.0002067
0.0002067
0.0002067
0.0002067
0.0002067
0.0002067
0.0002067
0.0002067
0.0002067
0.0002067
0.0002067
0.0002067
0.0002067
0.0002067
0.0002067
0.0002067
0.0002067
0.0002067
0.0002067
0.0002067
0.0002067
0.0002067
0.0002067
0.0002067
0.0002067
0.0002067
0.0002067
0.0002067
0.0002067
0.0002067
0.0002067
0.0002067
0.0002067
0.0002067
0.0002067
0.0002067
0.0002067
0.0002067
0.0002067
0.0002067
0.0002067
0.0002067
0.0002067
0.0002067
0.0002067
0.0002067
0.0002067
0.0002067
0.0002067
0.0002067
0.0002067
0.0002067
0.0002067
0.0002067
0.0002067
0.0002067
0.0002067
0.0002067
0.0002067
0.0002067
0.0002067
0.0002067
0.0002067
0.0002067
0.0002067
0.0002067
0.0002067
0.0002067
0.0002067
0.0002067
0.0002067
0.0002067
0.0002067
0.0002067
0.0002067
0.0002067
0.0002067
0.0002067
0.0002067
0.0002067
0.0002067
0.0002067
0.0002067
0.0002067
0.0002067
0.0002067
0.0002067
0.0002067
0.0002067
0.0002067
0.0002067
0.0002067
0.0002067
0.0002067
0.0002067
0.0002067
0.0002067
0.0002067
0.0002067
0.0002067
0.0002067
0.0002067
0.0002067
0.0002067
0.0002067
0.0002067
0.0002067
0.0002067
0.0002067
0.0002067
0.0002067
0.0002067
0.0002067
0.0002067
0.0002067
0.0002067
0.0002067
0.0002067
0.0002067
0.0002067
0.0002067
0.0002067
0.0002067
0.0002067
0.0002067
0.0002067
0.0002067
0.0002067
0.0002067
0.0002067
0.0002067
0.0002067
0.0002067
0.0002067
0.0002067
0.0002067
0.0002067
0.0002067
0.0002067
0.0002067
0.0002067
0.0002067
0.0002067
0.0002067
0.0002067
0.0002067
0.0002067
0.0002067
0.0002067
0.0002067
0.0002067
0.0002067
0.0002067
0.0002067
0.0002067
0.0002067
0.0002067
0.0002067
0.0002067
0.0002067
0.0002067
0.0002067
0.0002067
0.0002067
0.0002067
0.0002067
0.0002067
0.0002067
0.0002067
0.0002067
0.0002067
0.0002067
0.0002067
0.0002067
0.0002067
0.0002067
0.0002067
0.0002067
0.0002067
0.0002067
0.0002067
0.0002067
0.0002067
0.0002067
0.0002067
0.0002067
0.0002067
0.0002067
0.0002067
0.0002067
0.0002067
0.0002067
0.0002067
0.0002067
0.0002067
0.0002067
0.0002067
0.0002067
0.0002067
0.0002067
0.0002067
0.0002067
0.0002067
0.0002067
0.0002067
0.0002067
0.0002067
0.0002067
0.0002067
0.0002067
0.0002067
0.0002067
0.0002067
0.0002067
0.0002067
0.0002067
0.0002067
0.0002067
0.0002067
0.0002067
0.0002067
0.0002067
0.0002067
0.0002067
0.0002067
0.0002067
0.0002067
0.0002067
0.0002067
0.0002067
0.0002067
0.0002067
0.0002067
0.0002067
0.0002067
0.0002067
0.0002067
0.0002067
0.0002067
0.0002067
0.0002067
0.0002067
0.0002067
0.0002067
0.0002067
0.0002067
0.0002067
0.0002067
0.0002067
0.0002067
0.0002067
0.0002067
0.0002067
0.0002067
0.0002067
0.0002067
0.0002067
0.0002067
0.0002067
0.0002067
0.0002067
0.0002067
0.0002067
0.0002067
0.0002067
0.0002067
0.0002067
0.0002067
0.0002067
0.0002067
0.0002067
0.0002067
0.0002067
0.0002067
0.0002067
0.0002067
0.0002067
0.0002067
0.0002067
0.0002067
0.0002067
0.0002067
0.0002067
0.0002067
0.0002067
0.0002067
0.0002067
0.0002067
0.0002067
0.0002067
0.0002067
0.0002067
0.0002067
0.0002067
0.0002067
0.0002067
0.0002067
0.0002067
0.0002067
0.0002067
0.0002067
0.0002067
0.0002067
0.0002067
0.0002067
0.0002067
0.0002067
0.0002067
0.0002067
0.0002067
0.0002067
0.0002067
0.0002067
0.0002067
0.0002067
0.0002067
0.0002067
0.0002067
0.0002067
0.0002067
0.0002067
0.0002067
0.0002067
0.0002067
0.0002067
0.0002067
0.0002067
0.0002067
0.0002067
0.0002067
0.0002067
0.0002067
0.0002067
0.0002067
0.0002067
0.0002067
0.0002067
0.0002067
0.0002067
0.0002067
0.0002067
0.0002067
0.0002067
2.067e-08
2.067e-08
2.067e-08
2.067e-08
2.067e-08
2.067e-08
2.067e-08
2.067e-08
2.067e-08
2.067e-08
2.067e-08
2.067e-08
2.067e-08
2.067e-08
2.067e-08
2.067e-08
2.067e-08
2.067e-08
2.067e-08
2.067e-08
2.067e-08
2.067e-08
2.067e-08
2.067e-08
2.067e-08
2.067e-08
2.067e-08
2.067e-08
2.067e-08
2.067e-08
2.067e-08
2.067e-08
2.067e-08
2.067e-08
2.067e-08
2.067e-08
2.067e-08
2.067e-08
2.067e-08
2.067e-08
2.067e-08
2.067e-08
2.067e-08
2.067e-08
2.067e-08
2.067e-08
2.067e-08
2.067e-08
2.067e-08
2.067e-08
2.067e-08
2.067e-08
2.067e-08
2.067e-08
2.067e-08
2.067e-08
2.067e-08
2.067e-08
2.067e-08
2.067e-08
2.067e-08
2.067e-08
2.067e-08
2.067e-08
2.067e-08
2.067e-08
2.067e-08
2.067e-08
2.067e-08
2.067e-08
2.067e-08
2.067e-08
2.067e-08
2.067e-08
2.067e-08
2.067e-08
2.067e-08
2.067e-08
2.067e-08
2.067e-08
2.067e-08
0.0002067
0.0002067
0.0002067
0.0002067
0.0002067
0.0002067
0.0002067
0.0002067
0.0002067
0.0002067
0.0002067
0.0002067
0.0002067
0.0002067
0.0002067
0.0002067
0.0002067
0.0002067
0.0002067
0.0002067
2.067e-08
2.067e-08
2.067e-08
2.067e-08
2.067e-08
2.067e-08
2.067e-08
2.067e-08
2.067e-08
2.067e-08
2.067e-08
2.067e-08
2.067e-08
2.067e-08
2.067e-08
2.067e-08
2.067e-08
2.067e-08
2.067e-08
2.067e-08
2.067e-08
2.067e-08
2.067e-08
2.067e-08
2.067e-08
2.067e-08
2.067e-08
2.067e-08
2.067e-08
2.067e-08
2.067e-08
2.067e-08
2.067e-08
2.067e-08
2.067e-08
2.067e-08
2.067e-08
2.067e-08
2.067e-08
2.067e-08
2.067e-08
2.067e-08
2.067e-08
2.067e-08
2.067e-08
2.067e-08
2.067e-08
2.067e-08
2.067e-08
2.067e-08
2.067e-08
2.067e-08
2.067e-08
2.067e-08
2.067e-08
2.067e-08
2.067e-08
2.067e-08
2.067e-08
2.067e-08
2.067e-08
2.067e-08
2.067e-08
2.067e-08
2.067e-08
2.067e-08
2.067e-08
2.067e-08
2.067e-08
2.067e-08
2.067e-08
2.067e-08
2.067e-08
2.067e-08
2.067e-08
2.067e-08
2.067e-08
2.067e-08
2.067e-08
2.067e-08
2.067e-08
0.0002067
0.0002067
0.0002067
0.0002067
0.0002067
0.0002067
0.0002067
0.0002067
0.0002067
0.0002067
0.0002067
0.0002067
0.0002067
0.0002067
0.0002067
0.0002067
0.0002067
0.0002067
0.0002067
0.0002067
2.067e-08
2.067e-08
2.067e-08
2.067e-08
2.067e-08
2.067e-08
2.067e-08
2.067e-08
2.067e-08
2.067e-08
2.067e-08
2.067e-08
2.067e-08
2.067e-08
2.067e-08
2.067e-08
2.067e-08
2.067e-08
2.067e-08
2.067e-08
2.067e-08
2.067e-08
2.067e-08
2.067e-08
2.067e-08
2.067e-08
2.067e-08
2.067e-08
2.067e-08
2.067e-08
2.067e-08
2.067e-08
2.067e-08
2.067e-08
2.067e-08
2.067e-08
2.067e-08
2.067e-08
2.067e-08
2.067e-08
2.067e-08
2.067e-08
2.067e-08
2.067e-08
2.067e-08
2.067e-08
2.067e-08
2.067e-08
2.067e-08
2.067e-08
2.067e-08
2.067e-08
2.067e-08
2.067e-08
2.067e-08
2.067e-08
2.067e-08
2.067e-08
2.067e-08
2.067e-08
2.067e-08
2.067e-08
2.067e-08
2.067e-08
2.067e-08
2.067e-08
2.067e-08
2.067e-08
2.067e-08
2.067e-08
2.067e-08
2.067e-08
2.067e-08
2.067e-08
2.067e-08
2.067e-08
2.067e-08
2.067e-08
2.067e-08
2.067e-08
2.067e-08
0.0002067
0.0002067
0.0002067
0.0002067
0.0002067
0.0002067
0.0002067
0.0002067
0.0002067
0.0002067
0.0002067
0.0002067
0.0002067
0.0002067
0.0002067
0.0002067
0.0002067
0.0002067
0.0002067
0.0002067
2.067e-08
2.067e-08
2.067e-08
2.067e-08
2.067e-08
2.067e-08
2.067e-08
2.067e-08
2.067e-08
2.067e-08
2.067e-08
2.067e-08
2.067e-08
2.067e-08
2.067e-08
2.067e-08
2.067e-08
2.067e-08
2.067e-08
2.067e-08
2.067e-08
2.067e-08
2.067e-08
2.067e-08
2.067e-08
2.067e-08
2.067e-08
2.067e-08
2.067e-08
2.067e-08
2.067e-08
2.067e-08
2.067e-08
2.067e-08
2.067e-08
2.067e-08
2.067e-08
2.067e-08
2.067e-08
2.067e-08
2.067e-08
2.067e-08
2.067e-08
2.067e-08
2.067e-08
2.067e-08
2.067e-08
2.067e-08
2.067e-08
2.067e-08
2.067e-08
2.067e-08
2.067e-08
2.067e-08
2.067e-08
2.067e-08
2.067e-08
2.067e-08
2.067e-08
2.067e-08
2.067e-08
2.067e-08
2.067e-08
2.067e-08
2.067e-08
2.067e-08
2.067e-08
2.067e-08
2.067e-08
2.067e-08
2.067e-08
2.067e-08
2.067e-08
2.067e-08
2.067e-08
2.067e-08
2.067e-08
2.067e-08
2.067e-08
2.067e-08
2.067e-08
0.0002067
0.0002067
0.0002067
0.0002067
0.0002067
0.0002067
0.0002067
0.0002067
0.0002067
0.0002067
0.0002067
0.0002067
0.0002067
0.0002067
0.0002067
0.0002067
0.0002067
0.0002067
0.0002067
0.0002067
2.067e-08
2.067e-08
2.067e-08
2.067e-08
2.067e-08
2.067e-08
2.067e-08
2.067e-08
2.067e-08
2.067e-08
2.067e-08
2.067e-08
2.067e-08
2.067e-08
2.067e-08
2.067e-08
2.067e-08
2.067e-08
2.067e-08
2.067e-08
2.067e-08
2.067e-08
2.067e-08
2.067e-08
2.067e-08
2.067e-08
2.067e-08
2.067e-08
2.067e-08
2.067e-08
2.067e-08
2.067e-08
2.067e-08
2.067e-08
2.067e-08
2.067e-08
2.067e-08
2.067e-08
2.067e-08
2.067e-08
2.067e-08
2.067e-08
2.067e-08
2.067e-08
2.067e-08
2.067e-08
2.067e-08
2.067e-08
2.067e-08
2.067e-08
2.067e-08
2.067e-08
2.067e-08
2.067e-08
2.067e-08
2.067e-08
2.067e-08
2.067e-08
2.067e-08
2.067e-08
2.067e-08
2.067e-08
2.067e-08
2.067e-08
2.067e-08
2.067e-08
2.067e-08
2.067e-08
2.067e-08
2.067e-08
2.067e-08
2.067e-08
2.067e-08
2.067e-08
2.067e-08
2.067e-08
2.067e-08
2.067e-08
2.067e-08
2.067e-08
2.067e-08
0.0002067
0.0002067
0.0002067
0.0002067
0.0002067
0.0002067
0.0002067
0.0002067
0.0002067
0.0002067
0.0002067
0.0002067
0.0002067
0.0002067
0.0002067
0.0002067
0.0002067
0.0002067
0.0002067
0.0002067
2.067e-08
2.067e-08
2.067e-08
2.067e-08
2.067e-08
2.067e-08
2.067e-08
2.067e-08
2.067e-08
2.067e-08
2.067e-08
2.067e-08
2.067e-08
2.067e-08
2.067e-08
2.067e-08
2.067e-08
2.067e-08
2.067e-08
2.067e-08
2.067e-08
2.067e-08
2.067e-08
2.067e-08
2.067e-08
2.067e-08
2.067e-08
2.067e-08
2.067e-08
2.067e-08
2.067e-08
2.067e-08
2.067e-08
2.067e-08
2.067e-08
2.067e-08
2.067e-08
2.067e-08
2.067e-08
2.067e-08
2.067e-08
2.067e-08
2.067e-08
2.067e-08
2.067e-08
2.067e-08
2.067e-08
2.067e-08
2.067e-08
2.067e-08
2.067e-08
2.067e-08
2.067e-08
2.067e-08
2.067e-08
2.067e-08
2.067e-08
2.067e-08
2.067e-08
2.067e-08
2.067e-08
2.067e-08
2.067e-08
2.067e-08
2.067e-08
2.067e-08
2.067e-08
2.067e-08
2.067e-08
2.067e-08
2.067e-08
2.067e-08
2.067e-08
2.067e-08
2.067e-08
2.067e-08
2.067e-08
2.067e-08
2.067e-08
2.067e-08
2.067e-08
0.0002067
0.0002067
0.0002067
0.0002067
0.0002067
0.0002067
0.0002067
0.0002067
0.0002067
0.0002067
0.0002067
0.0002067
0.0002067
0.0002067
0.0002067
0.0002067
0.0002067
0.0002067
0.0002067
0.0002067
2.067e-08
2.067e-08
2.067e-08
2.067e-08
2.067e-08
2.067e-08
2.067e-08
2.067e-08
2.067e-08
2.067e-08
2.067e-08
2.067e-08
2.067e-08
2.067e-08
2.067e-08
2.067e-08
2.067e-08
2.067e-08
2.067e-08
2.067e-08
2.067e-08
2.067e-08
2.067e-08
2.067e-08
2.067e-08
2.067e-08
2.067e-08
2.067e-08
2.067e-08
2.067e-08
2.067e-08
2.067e-08
2.067e-08
2.067e-08
2.067e-08
2.067e-08
2.067e-08
2.067e-08
2.067e-08
2.067e-08
2.067e-08
2.067e-08
2.067e-08
2.067e-08
2.067e-08
2.067e-08
2.067e-08
2.067e-08
2.067e-08
2.067e-08
2.067e-08
2.067e-08
2.067e-08
2.067e-08
2.067e-08
2.067e-08
2.067e-08
2.067e-08
2.067e-08
2.067e-08
2.067e-08
2.067e-08
2.067e-08
2.067e-08
2.067e-08
2.067e-08
2.067e-08
2.067e-08
2.067e-08
2.067e-08
2.067e-08
2.067e-08
2.067e-08
2.067e-08
2.067e-08
2.067e-08
2.067e-08
2.067e-08
2.067e-08
2.067e-08
2.067e-08
0.0002067
0.0002067
0.0002067
0.0002067
0.0002067
0.0002067
0.0002067
0.0002067
0.0002067
0.0002067
0.0002067
0.0002067
0.0002067
0.0002067
0.0002067
0.0002067
0.0002067
0.0002067
0.0002067
0.0002067
2.067e-08
2.067e-08
2.067e-08
2.067e-08
2.067e-08
2.067e-08
2.067e-08
2.067e-08
2.067e-08
2.067e-08
2.067e-08
2.067e-08
2.067e-08
2.067e-08
2.067e-08
2.067e-08
2.067e-08
2.067e-08
2.067e-08
2.067e-08
2.067e-08
2.067e-08
2.067e-08
2.067e-08
2.067e-08
2.067e-08
2.067e-08
2.067e-08
2.067e-08
2.067e-08
2.067e-08
2.067e-08
2.067e-08
2.067e-08
2.067e-08
2.067e-08
2.067e-08
2.067e-08
2.067e-08
2.067e-08
2.067e-08
2.067e-08
2.067e-08
2.067e-08
2.067e-08
2.067e-08
2.067e-08
2.067e-08
2.067e-08
2.067e-08
2.067e-08
2.067e-08
2.067e-08
2.067e-08
2.067e-08
2.067e-08
2.067e-08
2.067e-08
2.067e-08
2.067e-08
2.067e-08
2.067e-08
2.067e-08
2.067e-08
2.067e-08
2.067e-08
2.067e-08
2.067e-08
2.067e-08
2.067e-08
2.067e-08
2.067e-08
2.067e-08
2.067e-08
2.067e-08
2.067e-08
2.067e-08
2.067e-08
2.067e-08
2.067e-08
2.067e-08
0.0002067
0.0002067
0.0002067
0.0002067
0.0002067
0.0002067
0.0002067
0.0002067
0.0002067
0.0002067
0.0002067
0.0002067
0.0002067
0.0002067
0.0002067
0.0002067
0.0002067
0.0002067
0.0002067
0.0002067
2.067e-08
2.067e-08
2.067e-08
2.067e-08
2.067e-08
2.067e-08
2.067e-08
2.067e-08
2.067e-08
2.067e-08
2.067e-08
2.067e-08
2.067e-08
2.067e-08
2.067e-08
2.067e-08
2.067e-08
2.067e-08
2.067e-08
2.067e-08
2.067e-08
2.067e-08
2.067e-08
2.067e-08
2.067e-08
2.067e-08
2.067e-08
2.067e-08
2.067e-08
2.067e-08
2.067e-08
2.067e-08
2.067e-08
2.067e-08
2.067e-08
2.067e-08
2.067e-08
2.067e-08
2.067e-08
2.067e-08
2.067e-08
2.067e-08
2.067e-08
2.067e-08
2.067e-08
2.067e-08
2.067e-08
2.067e-08
2.067e-08
2.067e-08
2.067e-08
2.067e-08
2.067e-08
2.067e-08
2.067e-08
2.067e-08
2.067e-08
2.067e-08
2.067e-08
2.067e-08
2.067e-08
2.067e-08
2.067e-08
2.067e-08
2.067e-08
2.067e-08
2.067e-08
2.067e-08
2.067e-08
2.067e-08
2.067e-08
2.067e-08
2.067e-08
2.067e-08
2.067e-08
2.067e-08
2.067e-08
2.067e-08
2.067e-08
2.067e-08
2.067e-08
0.0002067
0.0002067
0.0002067
0.0002067
0.0002067
0.0002067
0.0002067
0.0002067
0.0002067
0.0002067
0.0002067
0.0002067
0.0002067
0.0002067
0.0002067
0.0002067
0.0002067
0.0002067
0.0002067
0.0002067
2.067e-08