/*--------------------------------*- C++ -*----------------------------------*\
  =========                 |
  \\      /  F ield         | OpenFOAM: The Open Source CFD Toolbox
   \\    /   O peration     | Website:  https://openfoam.org
    \\  /    A nd           | Version:  7
     \\/     M anipulation  |
\*---------------------------------------------------------------------------*/
FoamFile
{
    version     2.0;
    format      ascii;
    class       dictionary;
    location    "constant";
    object      transportProperties;
}
// * * * * * * * * * * * * * * * * * * * * * * * * * * * * * * * * * * * * * //
// [kg m s K mol * *]


/* Clogging parameters
    
    All clogging models must be bounded to a minimum and a reference
    porosity and permeability, such that:

       k(n)
        |
   kRef |             ______
        |          .-'  
        |       .-'     
        |    .-'
   kMin |___/ 
        |___,_________,___ n
            nMin     nRef
*/
clog?     true;

nMin       nMin       [0 0 0 0 0 0 0]    0.05;       // Minimum porosity
permMin    permMin    [0 2 0 0 0 0 0]    2.566e-13;  // Minimum permeability

nRef       nRef       [0 0 0 0 0 0 0]    0.347;      // Reference porosity
permRef    permRef    [0 2 0 0 0 0 0]    2.566e-10;  // Reference permeability

cloggingModel powerLaw;

powerLawCoeffs
{
    nExponent dimless 3.5;     //- 19/6 if Clement et al. (1996) 
}

kozenyCarmanCoeffs
{
    nExponent dimless 3.0;
    mExponent dimless 2.0;
}

// ************************************************************************* //
