/*--------------------------------*- C++ -*----------------------------------*\
| =========                 |                                                 |
| \\      /  F ield         | OpenFOAM: The Open Source CFD Toolbox           |
|  \\    /   O peration     | Version:  v2206                                 |
|   \\  /    A nd           | Website:  www.openfoam.com                      |
|    \\/     M anipulation  |                                                 |
\*---------------------------------------------------------------------------*/
FoamFile
{
    version     2.0;
    format      ascii;
    class       dictionary;
    object      topoSetDict;
}
// * * * * * * * * * * * * * * * * * * * * * * * * * * * * * * * * * * * * * //

actions
(
  {
    name    injectionPointCellSet;
    type    cellSet;
    action  new;
    source  boxToCell;
    sourceInfo
    {
      box (0.45 0.0 0.40) (0.55 0.2 0.50);
    }
  }
  
  {
    name    injectionPoint;
    type    cellZoneSet;
    action  new;
    source  setToCellZone;
    sourceInfo
    {
      set   injectionPointCellSet;
    }
  }
);