/*--------------------------------*- C++ -*----------------------------------*\
  =========                 |
  \\      /  F ield         | OpenFOAM: The Open Source CFD Toolbox
   \\    /   O peration     | Website:  https://openfoam.org
    \\  /    A nd           | Version:  7
     \\/     M anipulation  |
\*---------------------------------------------------------------------------*/
FoamFile
{
    version     2.0;
    format      ascii;
    class       dictionary;
    location    "system";
    object      fvSolution;
}
// * * * * * * * * * * * * * * * * * * * * * * * * * * * * * * * * * * * * * //

solvers
{
    h
    {
        solver          PCG;
        preconditioner  DIC;
        tolerance       1e-09;
        relTol          0;
    }

    "(DOC|POC|O2|NO3|NH4|XAR|XN|XDN|XI|EPS|UAP|BAP|POCr)"
    {
        solver          PBiCGStab;
        preconditioner  DILU;
        tolerance       1e-09;
        relTol          0;
    }

}

SIMPLE
{
    nNonOrthogonalCorrectors 2;
}



// ************************************************************************* //
