/*--------------------------------*- C++ -*----------------------------------*\
  =========                 |
  \\      /  F ield         | OpenFOAM: The Open Source CFD Toolbox
   \\    /   O peration     | Website:  https://openfoam.org
    \\  /    A nd           | Version:  7
     \\/     M anipulation  |
\*---------------------------------------------------------------------------*/
FoamFile
{
    version     2.0;
    format      ascii;
    class       dictionary;
    location    "system";
    object      controlDict;
}
// * * * * * * * * * * * * * * * * * * * * * * * * * * * * * * * * * * * * * //

end_hours 25.0;
end_secs #calc "round($end_hours*3600.0)";

write_hours 1.0;
write_secs #calc "round($write_hours*3600.0)";

application     RichardsFoamE;

startFrom       latestTime;
startTime       0;
stopAt          endTime;

endTime	        $end_secs;
writeControl    runTime;
writeInterval   $write_secs;

deltaT          30;//1000;
purgeWrite      0;

writeFormat     ascii;

writePrecision  6;

writeCompression off;

timeFormat      fixed;

timePrecision   3;

runTimeModifiable true;

adjustTimeStep  yes;

maxCo           1.0;
debug           1;

// To plot breakthrough curve

functions
    {
      #includeFunc    probes
    };


// ************************************************************************* //
