/*--------------------------------*- C++ -*----------------------------------*\
  =========                 |
  \\      /  F ield         | OpenFOAM: The Open Source CFD Toolbox
   \\    /   O peration     | Website:  https://openfoam.org
    \\  /    A nd           | Version:  7
     \\/     M anipulation  |
\*---------------------------------------------------------------------------*/
FoamFile
{
    version     2.0;
    format      ascii;
    class       dictionary;
    location    "system";
    object      fvSolution;
}
// * * * * * * * * * * * * * * * * * * * * * * * * * * * * * * * * * * * * * //

solvers
{
    // h
    // {
    //     solver          PCG;
    //     preconditioner  DIC;
    //     tolerance       1e-06;
    //     relTol          0;
    // }

    h
    {
        solver          PCG;
        preconditioner  DIC;
        tolerance       1e-10;
        relTol          0;
    }

    // "(suspendedClay|depositedClay)"
    // {
    //     solver          PBiCGStab;
    //     preconditioner  DILU;
    //     tolerance       1e-06;
    //     relTol          0;
    // }
}

SIMPLE
{
    nNonOrthogonalCorrectors 2;
}

PISO
{
    nCorrectors     5;
    nNonOrthogonalCorrectors 0;
    pRefCell        0;
    pRefValue       0;
}

// relaxationFactors
// {
//     equations
//     {
//         DissolvedCarbonTransport        $relaxFactor;
//         AmmoniumTransport               $relaxFactor;
//         EPSTransport                    $relaxFactor;
//         UAPTransport                    $relaxFactor;
//         BAPTransport                    $relaxFactor;
//         ARGrowth                        $relaxFactor;
//         NitrifiersGrowth                $relaxFactor;
//         DenitrifiersGrowth              $relaxFactor;
//         InertGeneration                 $relaxFactor;
//         OxygenTransport                 $relaxFactor;
//         NitrateTransport                $relaxFactor;
//     }
// }

relaxFactor 1.0;

relaxationFactors
{
    fields  //Explicit relaxation
    {

    }
    
    equations  //Implicit relaxation
    {
        h        $relaxFactor;
    }
}

// ************************************************************************* //
