/*--------------------------------*- C++ -*----------------------------------*\
  =========                 |
  \\      /  F ield         | OpenFOAM: The Open Source CFD Toolbox
   \\    /   O peration     | Website:  https://openfoam.org
    \\  /    A nd           | Version:  7
     \\/     M anipulation  |
\*---------------------------------------------------------------------------*/
FoamFile
{
    version     2.0;
    format      ascii;
    class       dictionary;
    location    "system";
    object      fvSolution;
}
// * * * * * * * * * * * * * * * * * * * * * * * * * * * * * * * * * * * * * //

solvers
{
    // h
    // {
    //     solver          PCG;
    //     preconditioner  DIC;
    //     tolerance       1e-06;
    //     relTol          0;
    // }

    h
    {
        solver          PCG;
        preconditioner  DIC;
        tolerance       1e-10;
        relTol          0;
    }

    // "(suspendedClay|depositedClay)"
    // {
    //     solver          PBiCGStab;
    //     preconditioner  DILU;
    //     tolerance       1e-06;
    //     relTol          0;
    // }
}

SIMPLE
{
    nNonOrthogonalCorrectors 2;
}

// relaxFactor 0.8;

// relaxationFactors
// {
//     // fields  //Explicit relaxation
//     // {

//     // }
    
//     equations  //Implicit relaxation
//     {
//         h        $relaxFactor;
//     }
// }

// ************************************************************************* //
