/*--------------------------------*- C++ -*----------------------------------*\
  =========                 |
  \\      /  F ield         | OpenFOAM: The Open Source CFD Toolbox
   \\    /   O peration     | Website:  https://openfoam.org
    \\  /    A nd           | Version:  7
     \\/     M anipulation  |
\*---------------------------------------------------------------------------*/
FoamFile
{
    version     2.0;
    format      ascii;
    class       dictionary;
    location    "constant";
    object      transportProperties;
}
// * * * * * * * * * * * * * * * * * * * * * * * * * * * * * * * * * * * * * //
// [kg m s K mol * *]

// Biochemical parameters --- Aerobic respirators

// Maximum growth rate 
//   ♦  μ = 9.0E-7 1/day (Brovelli et al. 2009)
//      This is a really low growth rate
//      Assuming it's actually μ = 9.0E-7 1/s = 0.078 1/d it is still very low. 
//   ♦  Let's assume 7.0 gS/gX.d from Table 8.2 - Rittmann & McCarty (2020)
//      q = 7.0 gSBOD/gX.d
qhat     qhat     [0 0 -1 0 0 0 0]     2.315E-4;

// Half-saturation constant (e- donor)
//   ♦  KS = 8.0E-4 mol[methanol]/L = 25.6 mg[methanol]/L
//      and 3 mol[O2] <-> 2 mol[methanol] (redox react.)
//      thus 3 × 32g.O2 <-> 2 × 32g.CH3OH
//      hence 25.6 mg[methanol]/L = 38.4 mgCOD/L 
//      which is a little high compared to 10mg/L of 
//      Rittmann & McCarty (2020) Table 8.2
Kdonor   Kdonor   [1 -3 0 0 0 0 0]     0.0384;

// Half-saturation constant (e- acceptor)
//   ♦  Never near anoxic but keep this low reference value
Kaccep   Kaccep   [1 -3 0 0 0 0 0]     0.0001;

// Yield
//   ♦  Y = 0.2 (Brovelli et al. 2009) assuming units of g[Biomass]/g[methanol]
//      thus Y = 0.2 × 3gBOD/2gMetanol = 0.30
yield    yield    [0 0  0 0 0 0 0]     0.30;

// Decay first-order rate
//   ♦  Not specified in (Brovelli et al. 2009)
//      assume 0.30 1/d from Table 8.2 Rittmann & McCarty (2020)
bdie     bdie     [0 0 -1 0 0 0 0]     3.472E-6;

// ************************************************************************* //
