/*--------------------------------*- C++ -*----------------------------------*\
  =========                 |
  \\      /  F ield         | OpenFOAM: The Open Source CFD Toolbox
   \\    /   O peration     | Website:  https://openfoam.org
    \\  /    A nd           | Version:  7
     \\/     M anipulation  |
\*---------------------------------------------------------------------------*/
FoamFile
{
    version     2.0;
    format      ascii;
    class       dictionary;
    object      blockMeshDict;
}
// * * * * * * * * * * * * * * * * * * * * * * * * * * * * * * * * * * * * * //

convertToMeters 1.0;

lenght     1.60;
x_size     0.20;
y_size     0.10;

deltaLenght 0.005;

LCells #calc "round($lenght/$deltaLenght)";
WCells 1;
DCells 1;

vertices
(
    (0 0 0)                   //0
    ($x_size 0 0)           //1
    ($x_size $y_size 0)   //2
    (0 $y_size 0)           //3
    (0 0 $lenght)             //4
    ($x_size 0 $lenght)             //5
    ($x_size $y_size $lenght)     //6
    (0 $y_size $lenght)             //7
);


blocks
(
    hex (0 1 2 3 4 5 6 7) ($WCells $DCells $LCells) simpleGrading (1 1 0.2)
);

edges
(
);

boundary
(
    top
    {
        type patch;
        faces
        (
            (4 5 6 7)
        );
    }
    left
    {
        type empty;
        faces
        (
            (0 4 7 3)
        );
    }
    right
    {
        type empty;
        faces
        (
            (2 6 5 1)
        );
    }

    front
    {
        type empty;
        faces
        (
            (2 3 7 6)
        );
    }
    back
    {
        type empty;
        faces
        (
            (0 1 5 4)
        );
    }
    bottom
    {
        type patch;
        faces
        (
            (0 3 2 1)
        );
    }

);

mergePatchPairs
(
);

// ************************************************************************* //
